Version 4
SHEET 1 9216 5580
WIRE 5728 480 -640 480
WIRE -272 784 -272 768
WIRE -96 784 -272 784
WIRE -32 784 -96 784
WIRE 1744 784 1744 768
WIRE 3136 784 3136 768
WIRE 3312 784 3136 784
WIRE 3376 784 3312 784
WIRE 5152 784 5152 768
WIRE -96 800 -96 784
WIRE -32 800 -32 784
WIRE 3312 800 3312 784
WIRE 3376 800 3376 784
WIRE 1616 816 1552 816
WIRE 1744 816 1744 784
WIRE 1744 816 1616 816
WIRE 5024 816 4960 816
WIRE 5152 816 5152 784
WIRE 5152 816 5024 816
WIRE 1552 832 1552 816
WIRE 1616 832 1616 816
WIRE 4960 832 4960 816
WIRE 5024 832 5024 816
WIRE -96 928 -96 864
WIRE -48 928 -96 928
WIRE -32 928 -32 864
WIRE -32 928 -48 928
WIRE 1552 928 1552 896
WIRE 1584 928 1552 928
WIRE 1616 928 1616 896
WIRE 1616 928 1584 928
WIRE 3312 928 3312 864
WIRE 3360 928 3312 928
WIRE 3376 928 3376 864
WIRE 3376 928 3360 928
WIRE 4960 928 4960 896
WIRE 4992 928 4960 928
WIRE 5024 928 5024 896
WIRE 5024 928 4992 928
WIRE 144 960 0 960
WIRE 400 960 224 960
WIRE 736 960 400 960
WIRE 1168 960 768 960
WIRE 1376 960 1168 960
WIRE 1536 960 1456 960
WIRE 3552 960 3408 960
WIRE 3808 960 3632 960
WIRE 4144 960 3808 960
WIRE 4576 960 4176 960
WIRE 4784 960 4576 960
WIRE 4944 960 4864 960
WIRE -272 1024 -272 784
WIRE -192 1024 -272 1024
WIRE -16 1024 -128 1024
WIRE 1536 1024 1536 960
WIRE 1616 1024 1536 1024
WIRE 1744 1024 1744 816
WIRE 1744 1024 1680 1024
WIRE 3136 1024 3136 784
WIRE 3216 1024 3136 1024
WIRE 3392 1024 3280 1024
WIRE 4944 1024 4944 960
WIRE 5024 1024 4944 1024
WIRE 5152 1024 5152 816
WIRE 5152 1024 5088 1024
WIRE 544 1040 464 1040
WIRE 672 1040 672 768
WIRE 672 1040 640 1040
WIRE 816 1040 816 768
WIRE 848 1040 816 1040
WIRE 992 1040 944 1040
WIRE 3952 1040 3872 1040
WIRE 4080 1040 4080 768
WIRE 4080 1040 4048 1040
WIRE 4224 1040 4224 768
WIRE 4256 1040 4224 1040
WIRE 4400 1040 4352 1040
WIRE -640 1056 -640 480
WIRE -432 1056 -640 1056
WIRE -272 1056 -352 1056
WIRE -192 1056 -272 1056
WIRE -64 1056 -128 1056
WIRE 1616 1056 1552 1056
WIRE 1728 1056 1680 1056
WIRE 1824 1056 1728 1056
WIRE 2320 1056 1904 1056
WIRE 2976 1056 2768 1056
WIRE 3136 1056 3056 1056
WIRE 3216 1056 3136 1056
WIRE 3344 1056 3280 1056
WIRE 5024 1056 4960 1056
WIRE 5136 1056 5088 1056
WIRE 5232 1056 5136 1056
WIRE 5728 1056 5728 480
WIRE 5728 1056 5312 1056
WIRE 736 1072 736 960
WIRE 736 1072 640 1072
WIRE 768 1072 768 960
WIRE 848 1072 768 1072
WIRE 4144 1072 4144 960
WIRE 4144 1072 4048 1072
WIRE 4176 1072 4176 960
WIRE 4256 1072 4176 1072
WIRE -192 1088 -240 1088
WIRE 0 1088 0 960
WIRE 0 1088 -128 1088
WIRE 1168 1088 1168 960
WIRE 1376 1088 1168 1088
WIRE 1616 1088 1456 1088
WIRE 1792 1088 1680 1088
WIRE 3216 1088 3168 1088
WIRE 3408 1088 3408 960
WIRE 3408 1088 3280 1088
WIRE 4576 1088 4576 960
WIRE 4784 1088 4576 1088
WIRE 5024 1088 4864 1088
WIRE 5200 1088 5088 1088
WIRE 704 1104 640 1104
WIRE 784 1104 704 1104
WIRE 848 1104 784 1104
WIRE 4112 1104 4048 1104
WIRE 4192 1104 4112 1104
WIRE 4256 1104 4192 1104
WIRE -272 1184 -272 1056
WIRE -64 1184 -64 1056
WIRE -64 1184 -272 1184
WIRE 1552 1184 1552 1056
WIRE 1728 1184 1728 1056
WIRE 1728 1184 1552 1184
WIRE 3136 1184 3136 1056
WIRE 3344 1184 3344 1056
WIRE 3344 1184 3136 1184
WIRE 4960 1184 4960 1056
WIRE 5136 1184 5136 1056
WIRE 5136 1184 4960 1184
WIRE -16 1200 -16 1024
WIRE 144 1200 -16 1200
WIRE 288 1200 224 1200
WIRE 400 1200 400 960
WIRE 400 1200 288 1200
WIRE 1168 1200 1168 1088
WIRE 1168 1200 1056 1200
WIRE 3392 1200 3392 1024
WIRE 3552 1200 3392 1200
WIRE 3696 1200 3632 1200
WIRE 3808 1200 3808 960
WIRE 3808 1200 3696 1200
WIRE 4576 1200 4576 1088
WIRE 4576 1200 4464 1200
WIRE 704 1216 704 1104
WIRE 784 1216 784 1104
WIRE 4112 1216 4112 1104
WIRE 4192 1216 4192 1104
WIRE 288 1264 288 1200
WIRE 1168 1264 1168 1200
WIRE 3696 1264 3696 1200
WIRE 4576 1264 4576 1200
WIRE 1584 1312 1584 928
WIRE 1584 1312 1504 1312
WIRE 4992 1312 4992 928
WIRE 4992 1312 4912 1312
WIRE 704 1328 704 1280
WIRE 784 1328 784 1280
WIRE 1056 1328 1056 1200
WIRE 4112 1328 4112 1280
WIRE 4192 1328 4192 1280
WIRE 4464 1328 4464 1200
WIRE -240 1344 -240 1088
WIRE -240 1344 -416 1344
WIRE -144 1344 -240 1344
WIRE 400 1344 400 1200
WIRE 3168 1344 3168 1088
WIRE 3168 1344 2992 1344
WIRE 3264 1344 3168 1344
WIRE 3808 1344 3808 1200
WIRE -240 1408 -240 1344
WIRE -144 1408 -144 1344
WIRE 3168 1408 3168 1344
WIRE 3264 1408 3264 1344
WIRE 288 1424 288 1328
WIRE 1168 1424 1168 1328
WIRE 1712 1424 1600 1424
WIRE 1792 1424 1792 1088
WIRE 1792 1424 1712 1424
WIRE 2096 1424 1792 1424
WIRE 3696 1424 3696 1328
WIRE 4576 1424 4576 1328
WIRE 5120 1424 5008 1424
WIRE 5200 1424 5200 1088
WIRE 5200 1424 5120 1424
WIRE 5504 1424 5200 1424
WIRE 1600 1440 1600 1424
WIRE 1712 1440 1712 1424
WIRE 5008 1440 5008 1424
WIRE 5120 1440 5120 1424
WIRE 704 1488 704 1408
WIRE 784 1488 784 1408
WIRE 4112 1488 4112 1408
WIRE 4192 1488 4192 1408
WIRE -240 1552 -240 1472
WIRE -240 1552 -400 1552
WIRE -144 1552 -144 1472
WIRE -144 1552 -240 1552
WIRE -48 1552 -48 928
WIRE -48 1552 -144 1552
WIRE 288 1552 288 1488
WIRE 288 1552 -48 1552
WIRE 400 1552 400 1424
WIRE 400 1552 288 1552
WIRE 464 1552 464 1040
WIRE 464 1552 400 1552
WIRE 992 1552 992 1040
WIRE 1056 1552 1056 1408
WIRE 1056 1552 992 1552
WIRE 1168 1552 1168 1488
WIRE 1168 1552 1056 1552
WIRE 1504 1552 1504 1312
WIRE 1504 1552 1168 1552
WIRE 1600 1552 1600 1504
WIRE 1600 1552 1504 1552
WIRE 1712 1552 1712 1504
WIRE 1712 1552 1600 1552
WIRE 1984 1552 1712 1552
WIRE 3168 1552 3168 1472
WIRE 3168 1552 3008 1552
WIRE 3264 1552 3264 1472
WIRE 3264 1552 3168 1552
WIRE 3360 1552 3360 928
WIRE 3360 1552 3264 1552
WIRE 3696 1552 3696 1488
WIRE 3696 1552 3360 1552
WIRE 3808 1552 3808 1424
WIRE 3808 1552 3696 1552
WIRE 3872 1552 3872 1040
WIRE 3872 1552 3808 1552
WIRE 4400 1552 4400 1040
WIRE 4464 1552 4464 1408
WIRE 4464 1552 4400 1552
WIRE 4576 1552 4576 1488
WIRE 4576 1552 4464 1552
WIRE 4912 1552 4912 1312
WIRE 4912 1552 4576 1552
WIRE 5008 1552 5008 1504
WIRE 5008 1552 4912 1552
WIRE 5120 1552 5120 1504
WIRE 5120 1552 5008 1552
WIRE 5392 1552 5120 1552
WIRE -272 1808 -272 1792
WIRE -96 1808 -272 1808
WIRE -32 1808 -96 1808
WIRE 1744 1808 1744 1792
WIRE 3136 1808 3136 1792
WIRE 3312 1808 3136 1808
WIRE 3376 1808 3312 1808
WIRE 5152 1808 5152 1792
WIRE -96 1824 -96 1808
WIRE -32 1824 -32 1808
WIRE 3312 1824 3312 1808
WIRE 3376 1824 3376 1808
WIRE 1616 1840 1552 1840
WIRE 1744 1840 1744 1808
WIRE 1744 1840 1616 1840
WIRE 5024 1840 4960 1840
WIRE 5152 1840 5152 1808
WIRE 5152 1840 5024 1840
WIRE 1552 1856 1552 1840
WIRE 1616 1856 1616 1840
WIRE 4960 1856 4960 1840
WIRE 5024 1856 5024 1840
WIRE -640 1936 -640 1056
WIRE -640 1936 -1088 1936
WIRE -96 1952 -96 1888
WIRE -48 1952 -96 1952
WIRE -32 1952 -32 1888
WIRE -32 1952 -48 1952
WIRE 1552 1952 1552 1920
WIRE 1584 1952 1552 1952
WIRE 1616 1952 1616 1920
WIRE 1616 1952 1584 1952
WIRE 3312 1952 3312 1888
WIRE 3360 1952 3312 1952
WIRE 3376 1952 3376 1888
WIRE 3376 1952 3360 1952
WIRE 4960 1952 4960 1920
WIRE 4992 1952 4960 1952
WIRE 5024 1952 5024 1920
WIRE 5024 1952 4992 1952
WIRE 144 1984 0 1984
WIRE 400 1984 224 1984
WIRE 736 1984 400 1984
WIRE 1168 1984 768 1984
WIRE 1376 1984 1168 1984
WIRE 1536 1984 1456 1984
WIRE 3552 1984 3408 1984
WIRE 3808 1984 3632 1984
WIRE 4144 1984 3808 1984
WIRE 4576 1984 4176 1984
WIRE 4784 1984 4576 1984
WIRE 4944 1984 4864 1984
WIRE -272 2048 -272 1808
WIRE -192 2048 -272 2048
WIRE -16 2048 -128 2048
WIRE 1536 2048 1536 1984
WIRE 1616 2048 1536 2048
WIRE 1744 2048 1744 1840
WIRE 1744 2048 1680 2048
WIRE 3136 2048 3136 1808
WIRE 3216 2048 3136 2048
WIRE 3392 2048 3280 2048
WIRE 4944 2048 4944 1984
WIRE 5024 2048 4944 2048
WIRE 5152 2048 5152 1840
WIRE 5152 2048 5088 2048
WIRE 544 2064 464 2064
WIRE 672 2064 672 1792
WIRE 672 2064 640 2064
WIRE 816 2064 816 1792
WIRE 848 2064 816 2064
WIRE 992 2064 944 2064
WIRE 3952 2064 3872 2064
WIRE 4080 2064 4080 1792
WIRE 4080 2064 4048 2064
WIRE 4224 2064 4224 1792
WIRE 4256 2064 4224 2064
WIRE 4400 2064 4352 2064
WIRE -640 2080 -640 1936
WIRE -432 2080 -640 2080
WIRE -272 2080 -352 2080
WIRE -192 2080 -272 2080
WIRE -64 2080 -128 2080
WIRE 1616 2080 1552 2080
WIRE 1728 2080 1680 2080
WIRE 1824 2080 1728 2080
WIRE 2320 2080 2320 1056
WIRE 2320 2080 1904 2080
WIRE 2768 2080 2768 1056
WIRE 2976 2080 2768 2080
WIRE 3136 2080 3056 2080
WIRE 3216 2080 3136 2080
WIRE 3344 2080 3280 2080
WIRE 5024 2080 4960 2080
WIRE 5136 2080 5088 2080
WIRE 5232 2080 5136 2080
WIRE 5728 2080 5728 1056
WIRE 5728 2080 5312 2080
WIRE 736 2096 736 1984
WIRE 736 2096 640 2096
WIRE 768 2096 768 1984
WIRE 848 2096 768 2096
WIRE 4144 2096 4144 1984
WIRE 4144 2096 4048 2096
WIRE 4176 2096 4176 1984
WIRE 4256 2096 4176 2096
WIRE -192 2112 -240 2112
WIRE 0 2112 0 1984
WIRE 0 2112 -128 2112
WIRE 1168 2112 1168 1984
WIRE 1376 2112 1168 2112
WIRE 1616 2112 1456 2112
WIRE 1792 2112 1680 2112
WIRE 3216 2112 3168 2112
WIRE 3408 2112 3408 1984
WIRE 3408 2112 3280 2112
WIRE 4576 2112 4576 1984
WIRE 4784 2112 4576 2112
WIRE 5024 2112 4864 2112
WIRE 5200 2112 5088 2112
WIRE 688 2128 640 2128
WIRE 752 2128 688 2128
WIRE 800 2128 752 2128
WIRE 848 2128 800 2128
WIRE 4112 2128 4048 2128
WIRE 4176 2128 4112 2128
WIRE 4208 2128 4176 2128
WIRE 4256 2128 4208 2128
WIRE -272 2208 -272 2080
WIRE -64 2208 -64 2080
WIRE -64 2208 -272 2208
WIRE 1552 2208 1552 2080
WIRE 1728 2208 1728 2080
WIRE 1728 2208 1552 2208
WIRE 3136 2208 3136 2080
WIRE 3344 2208 3344 2080
WIRE 3344 2208 3136 2208
WIRE 4960 2208 4960 2080
WIRE 5136 2208 5136 2080
WIRE 5136 2208 4960 2208
WIRE -16 2224 -16 2048
WIRE 144 2224 -16 2224
WIRE 288 2224 224 2224
WIRE 400 2224 400 1984
WIRE 400 2224 288 2224
WIRE 1168 2224 1168 2112
WIRE 1168 2224 1056 2224
WIRE 3392 2224 3392 2048
WIRE 3552 2224 3392 2224
WIRE 3696 2224 3632 2224
WIRE 3808 2224 3808 1984
WIRE 3808 2224 3696 2224
WIRE 4576 2224 4576 2112
WIRE 4576 2224 4464 2224
WIRE 688 2240 688 2128
WIRE 800 2240 800 2128
WIRE 4112 2240 4112 2128
WIRE 4208 2240 4208 2128
WIRE 288 2288 288 2224
WIRE 1168 2288 1168 2224
WIRE 3696 2288 3696 2224
WIRE 4576 2288 4576 2224
WIRE 1584 2336 1584 1952
WIRE 1584 2336 1504 2336
WIRE 4992 2336 4992 1952
WIRE 4992 2336 4912 2336
WIRE 688 2352 688 2304
WIRE 800 2352 800 2304
WIRE 1056 2352 1056 2224
WIRE 4112 2352 4112 2304
WIRE 4208 2352 4208 2304
WIRE 4464 2352 4464 2224
WIRE -240 2368 -240 2112
WIRE -240 2368 -416 2368
WIRE -144 2368 -240 2368
WIRE 400 2368 400 2224
WIRE 3168 2368 3168 2112
WIRE 3168 2368 2992 2368
WIRE 3264 2368 3168 2368
WIRE 3808 2368 3808 2224
WIRE -240 2432 -240 2368
WIRE -144 2432 -144 2368
WIRE 3168 2432 3168 2368
WIRE 3264 2432 3264 2368
WIRE 288 2448 288 2352
WIRE 1168 2448 1168 2352
WIRE 1712 2448 1600 2448
WIRE 1792 2448 1792 2112
WIRE 1792 2448 1712 2448
WIRE 2096 2448 1792 2448
WIRE 3696 2448 3696 2352
WIRE 4576 2448 4576 2352
WIRE 5120 2448 5008 2448
WIRE 5200 2448 5200 2112
WIRE 5200 2448 5120 2448
WIRE 5504 2448 5200 2448
WIRE 1600 2464 1600 2448
WIRE 1712 2464 1712 2448
WIRE 5008 2464 5008 2448
WIRE 5120 2464 5120 2448
WIRE 688 2512 688 2432
WIRE 800 2512 800 2432
WIRE 4112 2512 4112 2432
WIRE 4208 2512 4208 2432
WIRE -240 2576 -240 2496
WIRE -240 2576 -400 2576
WIRE -144 2576 -144 2496
WIRE -144 2576 -240 2576
WIRE -48 2576 -48 1952
WIRE -48 2576 -144 2576
WIRE 288 2576 288 2512
WIRE 288 2576 -48 2576
WIRE 400 2576 400 2448
WIRE 400 2576 288 2576
WIRE 464 2576 464 2064
WIRE 464 2576 400 2576
WIRE 992 2576 992 2064
WIRE 1056 2576 1056 2432
WIRE 1056 2576 992 2576
WIRE 1168 2576 1168 2512
WIRE 1168 2576 1056 2576
WIRE 1504 2576 1504 2336
WIRE 1504 2576 1168 2576
WIRE 1600 2576 1600 2528
WIRE 1600 2576 1504 2576
WIRE 1712 2576 1712 2528
WIRE 1712 2576 1600 2576
WIRE 1984 2576 1712 2576
WIRE 3168 2576 3168 2496
WIRE 3168 2576 3008 2576
WIRE 3264 2576 3264 2496
WIRE 3264 2576 3168 2576
WIRE 3360 2576 3360 1952
WIRE 3360 2576 3264 2576
WIRE 3696 2576 3696 2512
WIRE 3696 2576 3360 2576
WIRE 3808 2576 3808 2448
WIRE 3808 2576 3696 2576
WIRE 3872 2576 3872 2064
WIRE 3872 2576 3808 2576
WIRE 4400 2576 4400 2064
WIRE 4464 2576 4464 2432
WIRE 4464 2576 4400 2576
WIRE 4576 2576 4576 2512
WIRE 4576 2576 4464 2576
WIRE 4912 2576 4912 2336
WIRE 4912 2576 4576 2576
WIRE 5008 2576 5008 2528
WIRE 5008 2576 4912 2576
WIRE 5120 2576 5120 2528
WIRE 5120 2576 5008 2576
WIRE 5392 2576 5120 2576
WIRE 6560 2800 6448 2800
WIRE 6768 2800 6560 2800
WIRE 6976 2800 6768 2800
WIRE 7168 2800 6976 2800
WIRE 7360 2800 7168 2800
WIRE 7456 2800 7360 2800
WIRE 7728 2800 7536 2800
WIRE 8240 2832 8128 2832
WIRE 8336 2832 8240 2832
WIRE 8528 2832 8416 2832
WIRE 8576 2832 8528 2832
WIRE 752 2848 752 2128
WIRE 1280 2848 752 2848
WIRE 6560 2864 6560 2800
WIRE 6768 2864 6768 2800
WIRE 6976 2864 6976 2800
WIRE 7168 2864 7168 2800
WIRE 7360 2864 7360 2800
WIRE 8128 2880 8128 2832
WIRE 4176 2896 4176 2128
WIRE 4688 2896 4176 2896
WIRE 8240 2896 8240 2832
WIRE 7728 2912 7728 2800
WIRE 8048 2912 7728 2912
WIRE 8048 2928 8048 2912
WIRE 8128 2976 8128 2960
WIRE 6560 3024 6560 2944
WIRE 6768 3024 6768 2928
WIRE 6976 3040 6976 2944
WIRE 7168 3040 7168 2928
WIRE 7360 3040 7360 2928
WIRE 8048 3056 8048 3008
WIRE 8048 3056 7840 3056
WIRE 8128 3088 8128 3056
WIRE 8240 3088 8240 2976
WIRE 8240 3088 8128 3088
WIRE 8528 3088 8528 2832
WIRE 8528 3088 8240 3088
WIRE 2688 3104 -640 3104
WIRE 5680 3104 2688 3104
WIRE 8528 3136 8528 3088
WIRE 672 3200 496 3200
WIRE 752 3200 752 2848
WIRE 752 3200 672 3200
WIRE 816 3200 752 3200
WIRE 992 3200 816 3200
WIRE 4032 3216 3856 3216
WIRE 4112 3216 4032 3216
WIRE 4176 3216 4176 2896
WIRE 4176 3216 4112 3216
WIRE 4352 3216 4176 3216
WIRE 496 3264 496 3200
WIRE 992 3264 992 3200
WIRE 8528 3264 8528 3216
WIRE 3856 3280 3856 3216
WIRE 4352 3280 4352 3216
WIRE 7840 3280 7840 3136
WIRE 496 3376 496 3328
WIRE 992 3376 992 3328
WIRE 3856 3392 3856 3344
WIRE 4352 3392 4352 3344
WIRE -272 3408 -272 3344
WIRE -96 3408 -272 3408
WIRE -32 3408 -96 3408
WIRE -96 3424 -96 3408
WIRE -32 3424 -32 3408
WIRE 3088 3424 3088 3408
WIRE 3264 3424 3088 3424
WIRE 3328 3424 3264 3424
WIRE 1616 3440 1552 3440
WIRE 1744 3440 1744 3392
WIRE 1744 3440 1616 3440
WIRE 3264 3440 3264 3424
WIRE 3328 3440 3328 3424
WIRE 1552 3456 1552 3440
WIRE 1616 3456 1616 3440
WIRE 4976 3456 4912 3456
WIRE 5104 3456 5104 3424
WIRE 5104 3456 4976 3456
WIRE 4912 3472 4912 3456
WIRE 4976 3472 4976 3456
WIRE 496 3504 496 3456
WIRE 992 3504 992 3456
WIRE 3856 3520 3856 3472
WIRE 4352 3520 4352 3472
WIRE -96 3552 -96 3488
WIRE -48 3552 -96 3552
WIRE -32 3552 -32 3488
WIRE -32 3552 -48 3552
WIRE 1552 3552 1552 3520
WIRE 1584 3552 1552 3552
WIRE 1616 3552 1616 3520
WIRE 1616 3552 1584 3552
WIRE 3264 3568 3264 3504
WIRE 3312 3568 3264 3568
WIRE 3328 3568 3328 3504
WIRE 3328 3568 3312 3568
WIRE 4912 3568 4912 3536
WIRE 4944 3568 4912 3568
WIRE 4976 3568 4976 3536
WIRE 4976 3568 4944 3568
WIRE 144 3584 0 3584
WIRE 400 3584 224 3584
WIRE 736 3584 400 3584
WIRE 1168 3584 768 3584
WIRE 1376 3584 1168 3584
WIRE 1536 3584 1456 3584
WIRE 3504 3600 3360 3600
WIRE 3760 3600 3584 3600
WIRE 4096 3600 3760 3600
WIRE 4528 3600 4128 3600
WIRE 4736 3600 4528 3600
WIRE 4896 3600 4816 3600
WIRE -272 3648 -272 3408
WIRE -192 3648 -272 3648
WIRE -16 3648 -128 3648
WIRE 1536 3648 1536 3584
WIRE 1616 3648 1536 3648
WIRE 1744 3648 1744 3440
WIRE 1744 3648 1680 3648
WIRE 544 3664 464 3664
WIRE 672 3664 672 3200
WIRE 672 3664 640 3664
WIRE 816 3664 816 3200
WIRE 848 3664 816 3664
WIRE 992 3664 944 3664
WIRE 3088 3664 3088 3424
WIRE 3168 3664 3088 3664
WIRE 3344 3664 3232 3664
WIRE 4896 3664 4896 3600
WIRE 4976 3664 4896 3664
WIRE 5104 3664 5104 3456
WIRE 5104 3664 5040 3664
WIRE -640 3680 -640 3104
WIRE -432 3680 -640 3680
WIRE -272 3680 -352 3680
WIRE -192 3680 -272 3680
WIRE -64 3680 -128 3680
WIRE 1616 3680 1552 3680
WIRE 1728 3680 1680 3680
WIRE 1824 3680 1728 3680
WIRE 2320 3680 1904 3680
WIRE 3904 3680 3824 3680
WIRE 4032 3680 4032 3216
WIRE 4032 3680 4000 3680
WIRE 4176 3680 4176 3216
WIRE 4208 3680 4176 3680
WIRE 4352 3680 4304 3680
WIRE 736 3696 736 3584
WIRE 736 3696 640 3696
WIRE 768 3696 768 3584
WIRE 848 3696 768 3696
WIRE 2688 3696 2688 3104
WIRE 2928 3696 2688 3696
WIRE 3088 3696 3008 3696
WIRE 3168 3696 3088 3696
WIRE 3296 3696 3232 3696
WIRE 4976 3696 4912 3696
WIRE 5088 3696 5040 3696
WIRE 5184 3696 5088 3696
WIRE 5680 3696 5680 3104
WIRE 5680 3696 5264 3696
WIRE -192 3712 -240 3712
WIRE 0 3712 0 3584
WIRE 0 3712 -128 3712
WIRE 1168 3712 1168 3584
WIRE 1376 3712 1168 3712
WIRE 1616 3712 1456 3712
WIRE 1792 3712 1680 3712
WIRE 4096 3712 4096 3600
WIRE 4096 3712 4000 3712
WIRE 4128 3712 4128 3600
WIRE 4208 3712 4128 3712
WIRE 672 3728 640 3728
WIRE 848 3728 672 3728
WIRE 3168 3728 3120 3728
WIRE 3360 3728 3360 3600
WIRE 3360 3728 3232 3728
WIRE 4528 3728 4528 3600
WIRE 4736 3728 4528 3728
WIRE 4976 3728 4816 3728
WIRE 5152 3728 5040 3728
WIRE 4032 3744 4000 3744
WIRE 4208 3744 4032 3744
WIRE -272 3808 -272 3680
WIRE -64 3808 -64 3680
WIRE -64 3808 -272 3808
WIRE 1552 3808 1552 3680
WIRE 1728 3808 1728 3680
WIRE 1728 3808 1552 3808
WIRE -16 3824 -16 3648
WIRE 144 3824 -16 3824
WIRE 288 3824 224 3824
WIRE 400 3824 400 3584
WIRE 400 3824 288 3824
WIRE 1168 3824 1168 3712
WIRE 1168 3824 1056 3824
WIRE 3088 3824 3088 3696
WIRE 3296 3824 3296 3696
WIRE 3296 3824 3088 3824
WIRE 4912 3824 4912 3696
WIRE 5088 3824 5088 3696
WIRE 5088 3824 4912 3824
WIRE 3344 3840 3344 3664
WIRE 3504 3840 3344 3840
WIRE 3648 3840 3584 3840
WIRE 3760 3840 3760 3600
WIRE 3760 3840 3648 3840
WIRE 4528 3840 4528 3728
WIRE 4528 3840 4416 3840
WIRE 704 3856 608 3856
WIRE 752 3856 752 3200
WIRE 752 3856 704 3856
WIRE 784 3856 752 3856
WIRE 880 3856 784 3856
WIRE 4064 3872 3968 3872
WIRE 4112 3872 4112 3216
WIRE 4112 3872 4064 3872
WIRE 4144 3872 4112 3872
WIRE 4240 3872 4144 3872
WIRE 288 3888 288 3824
WIRE 1168 3888 1168 3824
WIRE 704 3904 704 3856
WIRE 784 3904 784 3856
WIRE 3648 3904 3648 3840
WIRE 4528 3904 4528 3840
WIRE 4064 3920 4064 3872
WIRE 4144 3920 4144 3872
WIRE 1584 3936 1584 3552
WIRE 1584 3936 1504 3936
WIRE 1056 3952 1056 3824
WIRE 4944 3952 4944 3568
WIRE 4944 3952 4864 3952
WIRE -240 3968 -240 3712
WIRE -240 3968 -416 3968
WIRE -144 3968 -240 3968
WIRE 400 3968 400 3824
WIRE 4416 3968 4416 3840
WIRE 3120 3984 3120 3728
WIRE 3120 3984 2944 3984
WIRE 3216 3984 3120 3984
WIRE 3760 3984 3760 3840
WIRE 704 4016 704 3968
WIRE 784 4016 784 3968
WIRE -240 4032 -240 3968
WIRE -144 4032 -144 3968
WIRE 4064 4032 4064 3984
WIRE 4144 4032 4144 3984
WIRE 288 4048 288 3952
WIRE 1168 4048 1168 3952
WIRE 1712 4048 1600 4048
WIRE 1792 4048 1792 3712
WIRE 1792 4048 1712 4048
WIRE 2096 4048 1792 4048
WIRE 3120 4048 3120 3984
WIRE 3216 4048 3216 3984
WIRE 1600 4064 1600 4048
WIRE 1712 4064 1712 4048
WIRE 3648 4064 3648 3968
WIRE 4528 4064 4528 3968
WIRE 5072 4064 4960 4064
WIRE 5152 4064 5152 3728
WIRE 5152 4064 5072 4064
WIRE 5456 4064 5152 4064
WIRE 4960 4080 4960 4064
WIRE 5072 4080 5072 4064
WIRE -240 4176 -240 4096
WIRE -240 4176 -400 4176
WIRE -144 4176 -144 4096
WIRE -144 4176 -240 4176
WIRE -48 4176 -48 3552
WIRE -48 4176 -144 4176
WIRE 288 4176 288 4112
WIRE 288 4176 -48 4176
WIRE 400 4176 400 4048
WIRE 400 4176 288 4176
WIRE 464 4176 464 3664
WIRE 464 4176 400 4176
WIRE 704 4176 704 4096
WIRE 784 4176 784 4096
WIRE 992 4176 992 3664
WIRE 1056 4176 1056 4032
WIRE 1056 4176 992 4176
WIRE 1168 4176 1168 4112
WIRE 1168 4176 1056 4176
WIRE 1504 4176 1504 3936
WIRE 1504 4176 1168 4176
WIRE 1600 4176 1600 4128
WIRE 1600 4176 1504 4176
WIRE 1712 4176 1712 4128
WIRE 1712 4176 1600 4176
WIRE 1984 4176 1712 4176
WIRE 3120 4192 3120 4112
WIRE 3120 4192 2960 4192
WIRE 3216 4192 3216 4112
WIRE 3216 4192 3120 4192
WIRE 3312 4192 3312 3568
WIRE 3312 4192 3216 4192
WIRE 3648 4192 3648 4128
WIRE 3648 4192 3312 4192
WIRE 3760 4192 3760 4064
WIRE 3760 4192 3648 4192
WIRE 3824 4192 3824 3680
WIRE 3824 4192 3760 4192
WIRE 4064 4192 4064 4112
WIRE 4144 4192 4144 4112
WIRE 4352 4192 4352 3680
WIRE 4416 4192 4416 4048
WIRE 4416 4192 4352 4192
WIRE 4528 4192 4528 4128
WIRE 4528 4192 4416 4192
WIRE 4864 4192 4864 3952
WIRE 4864 4192 4528 4192
WIRE 4960 4192 4960 4144
WIRE 4960 4192 4864 4192
WIRE 5072 4192 5072 4144
WIRE 5072 4192 4960 4192
WIRE 5344 4192 5072 4192
WIRE 672 4304 672 3728
WIRE 752 4304 672 4304
WIRE 4032 4320 4032 3744
WIRE 4112 4320 4032 4320
WIRE -272 4432 -272 4416
WIRE -96 4432 -272 4432
WIRE -32 4432 -96 4432
WIRE 608 4432 608 3856
WIRE 672 4432 608 4432
WIRE 880 4432 880 3856
WIRE 880 4432 816 4432
WIRE 1744 4432 1744 4416
WIRE -96 4448 -96 4432
WIRE -32 4448 -32 4432
WIRE 3088 4448 3088 4432
WIRE 3264 4448 3088 4448
WIRE 3328 4448 3264 4448
WIRE 3968 4448 3968 3872
WIRE 4032 4448 3968 4448
WIRE 4240 4448 4240 3872
WIRE 4240 4448 4176 4448
WIRE 5104 4448 5104 4432
WIRE 1616 4464 1552 4464
WIRE 1744 4464 1744 4432
WIRE 1744 4464 1616 4464
WIRE 3264 4464 3264 4448
WIRE 3328 4464 3328 4448
WIRE 1552 4480 1552 4464
WIRE 1616 4480 1616 4464
WIRE 4976 4480 4912 4480
WIRE 5104 4480 5104 4448
WIRE 5104 4480 4976 4480
WIRE 4912 4496 4912 4480
WIRE 4976 4496 4976 4480
WIRE -640 4560 -640 3680
WIRE -640 4560 -1088 4560
WIRE -96 4576 -96 4512
WIRE -48 4576 -96 4576
WIRE -32 4576 -32 4512
WIRE -32 4576 -48 4576
WIRE 1552 4576 1552 4544
WIRE 1584 4576 1552 4576
WIRE 1616 4576 1616 4544
WIRE 1616 4576 1584 4576
WIRE 3264 4592 3264 4528
WIRE 3312 4592 3264 4592
WIRE 3328 4592 3328 4528
WIRE 3328 4592 3312 4592
WIRE 4912 4592 4912 4560
WIRE 4944 4592 4912 4592
WIRE 4976 4592 4976 4560
WIRE 4976 4592 4944 4592
WIRE 144 4608 0 4608
WIRE 400 4608 224 4608
WIRE 736 4608 400 4608
WIRE 1168 4608 768 4608
WIRE 1376 4608 1168 4608
WIRE 1536 4608 1456 4608
WIRE 3504 4624 3360 4624
WIRE 3760 4624 3584 4624
WIRE 4096 4624 3760 4624
WIRE 4528 4624 4128 4624
WIRE 4736 4624 4528 4624
WIRE 4896 4624 4816 4624
WIRE -272 4672 -272 4432
WIRE -192 4672 -272 4672
WIRE -16 4672 -128 4672
WIRE 1536 4672 1536 4608
WIRE 1616 4672 1536 4672
WIRE 1744 4672 1744 4464
WIRE 1744 4672 1680 4672
WIRE 544 4688 464 4688
WIRE 672 4688 672 4432
WIRE 672 4688 640 4688
WIRE 816 4688 816 4432
WIRE 848 4688 816 4688
WIRE 992 4688 944 4688
WIRE 3088 4688 3088 4448
WIRE 3168 4688 3088 4688
WIRE 3344 4688 3232 4688
WIRE 4896 4688 4896 4624
WIRE 4976 4688 4896 4688
WIRE 5104 4688 5104 4480
WIRE 5104 4688 5040 4688
WIRE -640 4704 -640 4560
WIRE -432 4704 -640 4704
WIRE -272 4704 -352 4704
WIRE -192 4704 -272 4704
WIRE -64 4704 -128 4704
WIRE 1616 4704 1552 4704
WIRE 1728 4704 1680 4704
WIRE 1824 4704 1728 4704
WIRE 2320 4704 2320 3680
WIRE 2320 4704 1904 4704
WIRE 3904 4704 3824 4704
WIRE 4032 4704 4032 4448
WIRE 4032 4704 4000 4704
WIRE 4176 4704 4176 4448
WIRE 4208 4704 4176 4704
WIRE 4352 4704 4304 4704
WIRE 736 4720 736 4608
WIRE 736 4720 640 4720
WIRE 768 4720 768 4608
WIRE 848 4720 768 4720
WIRE 2688 4720 2688 3696
WIRE 2928 4720 2688 4720
WIRE 3088 4720 3008 4720
WIRE 3168 4720 3088 4720
WIRE 3296 4720 3232 4720
WIRE 4976 4720 4912 4720
WIRE 5088 4720 5040 4720
WIRE 5184 4720 5088 4720
WIRE 5680 4720 5680 3696
WIRE 5680 4720 5264 4720
WIRE -192 4736 -240 4736
WIRE 0 4736 0 4608
WIRE 0 4736 -128 4736
WIRE 1168 4736 1168 4608
WIRE 1376 4736 1168 4736
WIRE 1616 4736 1456 4736
WIRE 1792 4736 1680 4736
WIRE 4096 4736 4096 4624
WIRE 4096 4736 4000 4736
WIRE 4128 4736 4128 4624
WIRE 4208 4736 4128 4736
WIRE 752 4752 752 4304
WIRE 752 4752 640 4752
WIRE 848 4752 752 4752
WIRE 3168 4752 3120 4752
WIRE 3360 4752 3360 4624
WIRE 3360 4752 3232 4752
WIRE 4528 4752 4528 4624
WIRE 4736 4752 4528 4752
WIRE 4976 4752 4816 4752
WIRE 5152 4752 5040 4752
WIRE 4112 4768 4112 4320
WIRE 4112 4768 4000 4768
WIRE 4208 4768 4112 4768
WIRE 752 4816 752 4752
WIRE -272 4832 -272 4704
WIRE -64 4832 -64 4704
WIRE -64 4832 -272 4832
WIRE 1552 4832 1552 4704
WIRE 1728 4832 1728 4704
WIRE 1728 4832 1552 4832
WIRE 4112 4832 4112 4768
WIRE -16 4848 -16 4672
WIRE 144 4848 -16 4848
WIRE 288 4848 224 4848
WIRE 400 4848 400 4608
WIRE 400 4848 288 4848
WIRE 1168 4848 1168 4736
WIRE 1168 4848 1056 4848
WIRE 3088 4848 3088 4720
WIRE 3296 4848 3296 4720
WIRE 3296 4848 3088 4848
WIRE 4912 4848 4912 4720
WIRE 5088 4848 5088 4720
WIRE 5088 4848 4912 4848
WIRE 3344 4864 3344 4688
WIRE 3504 4864 3344 4864
WIRE 3648 4864 3584 4864
WIRE 3760 4864 3760 4624
WIRE 3760 4864 3648 4864
WIRE 4528 4864 4528 4752
WIRE 4528 4864 4416 4864
WIRE 288 4912 288 4848
WIRE 1168 4912 1168 4848
WIRE 3648 4928 3648 4864
WIRE 4528 4928 4528 4864
WIRE 1584 4960 1584 4576
WIRE 1584 4960 1504 4960
WIRE 1056 4976 1056 4848
WIRE 4944 4976 4944 4592
WIRE 4944 4976 4864 4976
WIRE -240 4992 -240 4736
WIRE -240 4992 -416 4992
WIRE -144 4992 -240 4992
WIRE 400 4992 400 4848
WIRE 4416 4992 4416 4864
WIRE 3120 5008 3120 4752
WIRE 3120 5008 2944 5008
WIRE 3216 5008 3120 5008
WIRE 3760 5008 3760 4864
WIRE -240 5056 -240 4992
WIRE -144 5056 -144 4992
WIRE 288 5072 288 4976
WIRE 1168 5072 1168 4976
WIRE 1712 5072 1600 5072
WIRE 1792 5072 1792 4736
WIRE 1792 5072 1712 5072
WIRE 2096 5072 1792 5072
WIRE 3120 5072 3120 5008
WIRE 3216 5072 3216 5008
WIRE 1600 5088 1600 5072
WIRE 1712 5088 1712 5072
WIRE 3648 5088 3648 4992
WIRE 4528 5088 4528 4992
WIRE 5072 5088 4960 5088
WIRE 5152 5088 5152 4752
WIRE 5152 5088 5072 5088
WIRE 5456 5088 5152 5088
WIRE 4960 5104 4960 5088
WIRE 5072 5104 5072 5088
WIRE -240 5200 -240 5120
WIRE -240 5200 -400 5200
WIRE -144 5200 -144 5120
WIRE -144 5200 -240 5200
WIRE -48 5200 -48 4576
WIRE -48 5200 -144 5200
WIRE 288 5200 288 5136
WIRE 288 5200 -48 5200
WIRE 400 5200 400 5072
WIRE 400 5200 288 5200
WIRE 464 5200 464 4688
WIRE 464 5200 400 5200
WIRE 992 5200 992 4688
WIRE 1056 5200 1056 5056
WIRE 1056 5200 992 5200
WIRE 1168 5200 1168 5136
WIRE 1168 5200 1056 5200
WIRE 1504 5200 1504 4960
WIRE 1504 5200 1168 5200
WIRE 1600 5200 1600 5152
WIRE 1600 5200 1504 5200
WIRE 1712 5200 1712 5152
WIRE 1712 5200 1600 5200
WIRE 1984 5200 1712 5200
WIRE 3120 5216 3120 5136
WIRE 3120 5216 2960 5216
WIRE 3216 5216 3216 5136
WIRE 3216 5216 3120 5216
WIRE 3312 5216 3312 4592
WIRE 3312 5216 3216 5216
WIRE 3648 5216 3648 5152
WIRE 3648 5216 3312 5216
WIRE 3760 5216 3760 5088
WIRE 3760 5216 3648 5216
WIRE 3824 5216 3824 4704
WIRE 3824 5216 3760 5216
WIRE 4352 5216 4352 4704
WIRE 4416 5216 4416 5072
WIRE 4416 5216 4352 5216
WIRE 4528 5216 4528 5152
WIRE 4528 5216 4416 5216
WIRE 4864 5216 4864 4976
WIRE 4864 5216 4528 5216
WIRE 4960 5216 4960 5168
WIRE 4960 5216 4864 5216
WIRE 5072 5216 5072 5168
WIRE 5072 5216 4960 5216
WIRE 5344 5216 5072 5216
FLAG 672 768 +80V
FLAG 816 768 +80V
FLAG 704 1488 0
FLAG 784 1488 0
FLAG -400 1552 VMID_DS
FLAG -272 768 15Vtop_ISO
FLAG -416 1344 Neg3Vtop_ISO
FLAG 1984 1552 VMID_DS
FLAG 2096 1424 Neg3Vtop_ISO
FLAG 1744 784 15Vtop_ISO
FLAG 672 1792 +80V
FLAG 816 1792 +80V
FLAG 688 2512 0
FLAG 800 2512 0
FLAG -400 2576 VMID_DS
FLAG -272 1792 15Vtop_ISO
FLAG -416 2368 Neg3Vtop_ISO
FLAG 1984 2576 VMID_DS
FLAG 2096 2448 Neg3Vtop_ISO
FLAG 1744 1808 15Vtop_ISO
FLAG 4080 768 +80V
FLAG 4224 768 +80V
FLAG 4112 1488 0
FLAG 4192 1488 0
FLAG 3008 1552 VMID_DS
FLAG 3136 768 15Vtop_ISO
FLAG 2992 1344 Neg3Vtop_ISO
FLAG 5392 1552 VMID_DS
FLAG 5504 1424 Neg3Vtop_ISO
FLAG 5152 784 15Vtop_ISO
FLAG 4080 1792 +80V
FLAG 4224 1792 +80V
FLAG 4112 2512 0
FLAG 4208 2512 0
FLAG 3008 2576 VMID_DS
FLAG 3136 1792 15Vtop_ISO
FLAG 2992 2368 Neg3Vtop_ISO
FLAG 5392 2576 VMID_DS
FLAG 5504 2448 Neg3Vtop_ISO
FLAG 5152 1808 15Vtop_ISO
FLAG 1280 2848 VPULSE_OUT
FLAG 4688 2896 VPULSE_OUT
FLAG -1088 1936 ON_PULSE_TOP
FLAG 704 4176 0
FLAG 784 4176 0
FLAG -400 5200 VBOT_DS
FLAG -272 4416 15Vtop_ISO
FLAG -416 4992 Neg3Vbot_ISO
FLAG 1744 4432 15Vtop_ISO
FLAG -1088 4560 ON_PULSE_BOTTOM
FLAG 496 3504 0
FLAG 992 3504 0
FLAG 752 4816 0
FLAG 2096 5072 Neg3Vbot_ISO
FLAG 1984 5200 VBOT_DS
FLAG -400 4176 VBOT_DS
FLAG -416 3968 Neg3Vbot_ISO
FLAG 2096 4048 Neg3Vbot_ISO
FLAG 1984 4176 VBOT_DS
FLAG 4064 4192 0
FLAG 4144 4192 0
FLAG 5104 3424 15Vbot_ISO
FLAG 2960 5216 VBOT_DS
FLAG 3088 4432 15Vtop_ISO
FLAG 2944 5008 Neg3Vbot_ISO
FLAG 5104 4448 15Vtop_ISO
FLAG 3856 3520 0
FLAG 4352 3520 0
FLAG 4112 4832 0
FLAG 5456 5088 Neg3Vbot_ISO
FLAG 5344 5216 VBOT_DS
FLAG 2960 4192 VBOT_DS
FLAG 2944 3984 Neg3Vbot_ISO
FLAG 5456 4064 Neg3Vbot_ISO
FLAG 5344 4192 VBOT_DS
FLAG 3088 3408 15Vbot_ISO
FLAG 1744 3392 15Vbot_ISO
FLAG -272 3344 15Vbot_ISO
FLAG 7360 3040 0
FLAG 7168 3040 0
FLAG 6976 3040 0
FLAG 6768 3024 0
FLAG 6560 3024 0
FLAG 7840 3280 0
FLAG 6384 2800 VPULSE_OUT
FLAG 8528 3264 COM
FLAG 8576 2832 J1
IOPIN 8576 2832 Out
SYMBOL AutoGenerated\\ZXGD3002E6 -160 1056 R0
SYMATTR InstName U1
SYMBOL AutoGenerated\\ZXGD3002E6 1648 1056 M0
SYMATTR InstName U2
SYMBOL AutoGenerated\\C3M0065100K 592 1072 M0
SYMATTR InstName U9
SYMBOL AutoGenerated\\C3M0065100K 896 1072 R0
SYMATTR InstName U10
SYMBOL cap 688 1216 R0
SYMATTR InstName C1
SYMBOL res 688 1312 R0
SYMATTR InstName R1
SYMBOL cap 768 1216 R0
SYMATTR InstName C2
SYMBOL res 768 1312 R0
SYMATTR InstName R2
SYMBOL res 240 944 R90
WINDOW 0 0 56 VBottom 2
WINDOW 3 32 56 VTop 2
SYMATTR InstName R3
SYMBOL res 240 1184 R90
WINDOW 0 0 56 VBottom 2
WINDOW 3 32 56 VTop 2
SYMATTR InstName R4
SYMBOL zener 272 1264 R0
SYMATTR InstName D4
SYMATTR Value MD1
SYMATTR Description Diode
SYMATTR Type diode
SYMBOL schottky 304 1488 R180
WINDOW 0 24 64 Left 2
WINDOW 3 24 0 Left 2
SYMATTR InstName D5
SYMATTR Value S100
SYMATTR Description Diode
SYMATTR Type diode
SYMBOL res 384 1328 R0
SYMATTR InstName R5
SYMBOL res -336 1040 R90
WINDOW 0 0 56 VBottom 2
WINDOW 3 32 56 VTop 2
SYMATTR InstName R6
SYMBOL cap -112 800 R0
SYMATTR InstName C3
SYMBOL cap -48 800 R0
SYMATTR InstName C4
SYMBOL cap -256 1408 R0
SYMATTR InstName C5
SYMBOL cap -160 1408 R0
SYMATTR InstName C6
SYMBOL zener 1152 1264 R0
SYMATTR InstName D6
SYMATTR Value MD1
SYMATTR Description Diode
SYMATTR Type diode
SYMBOL schottky 1184 1488 R180
WINDOW 0 24 64 Left 2
WINDOW 3 24 0 Left 2
SYMATTR InstName D7
SYMATTR Value S100
SYMATTR Description Diode
SYMATTR Type diode
SYMBOL res 1040 1312 R0
SYMATTR InstName R7
SYMBOL res 1472 1072 R90
WINDOW 0 0 56 VBottom 2
WINDOW 3 32 56 VTop 2
SYMATTR InstName R8
SYMBOL res 1472 944 R90
WINDOW 0 0 56 VBottom 2
WINDOW 3 32 56 VTop 2
SYMATTR InstName R9
SYMBOL res 1920 1040 R90
WINDOW 0 0 56 VBottom 2
WINDOW 3 32 56 VTop 2
SYMATTR InstName R10
SYMBOL cap 1584 1440 R0
SYMATTR InstName C7
SYMBOL cap 1696 1440 R0
SYMATTR InstName C8