Version 4
SHEET 1 1112 680
SYMBOL ZXGD3002E6 256 208 R0
SYMATTR InstName X1
TEXT -256 -240 Left 2 !.include C:\\Users\\Lyrtron8\\Desktop\\Mariano\\SWCCA_Project\\SWCCA_2MHz\\SPICE\\MODELS\\ZXGD3002E6.spice.txt
